Version 4
SHEET 1 1156 680
WIRE 176 -400 -32 -400
WIRE 1152 -400 944 -400
WIRE 128 -352 48 -352
WIRE 416 -352 256 -352
WIRE 496 -352 416 -352
WIRE 704 -352 624 -352
WIRE 864 -352 704 -352
WIRE 1072 -352 992 -352
WIRE 48 -336 48 -352
WIRE 256 -336 256 -352
WIRE 416 -336 416 -352
WIRE 704 -336 704 -352
WIRE 864 -336 864 -352
WIRE 1072 -336 1072 -352
WIRE 176 -320 176 -400
WIRE 208 -320 176 -320
WIRE 944 -320 944 -400
WIRE 944 -320 912 -320
WIRE 128 -272 128 -352
WIRE 208 -272 128 -272
WIRE 992 -272 992 -352
WIRE 992 -272 912 -272
WIRE -32 -208 -32 -400
WIRE 256 -208 256 -256
WIRE 256 -208 -32 -208
WIRE 560 -208 256 -208
WIRE 864 -208 864 -256
WIRE 864 -208 560 -208
WIRE 1152 -208 1152 -400
WIRE 1152 -208 864 -208
WIRE 224 -160 48 -160
WIRE 352 -160 224 -160
WIRE 560 -160 560 -208
WIRE 560 -160 480 -160
WIRE 640 -160 560 -160
WIRE 48 -144 48 -160
WIRE 224 -144 224 -160
WIRE 480 -144 480 -160
WIRE 640 -144 640 -160
WIRE 304 -128 272 -128
WIRE 432 -128 400 -128
WIRE 304 -112 304 -128
WIRE 400 -112 400 -128
WIRE 352 -80 352 -160
WIRE 352 -80 272 -80
WIRE 432 -80 352 -80
FLAG 48 -256 0
FLAG 1072 -256 0
FLAG 416 -256 0
FLAG 128 -352 G1
FLAG 496 -352 D1
FLAG 624 -352 D2
FLAG 704 -256 0
FLAG 992 -352 G2
FLAG 560 -208 SA
FLAG 640 -64 0
FLAG 480 -64 0
FLAG 400 -112 0
FLAG 304 -112 0
FLAG 224 -64 0
FLAG 48 -64 0
FLAG 352 -80 D4
FLAG 224 -160 D4
SYMBOL res 400 -352 R0
WINDOW 3 36 76 Left 1
SYMATTR Value 20k
SYMATTR InstName RD1
SYMBOL voltage 1072 -352 R0
WINDOW 3 24 96 Invisible 2
SYMATTR InstName Vi2
SYMBOL voltage 48 -352 M0
WINDOW 3 24 96 Invisible 2
SYMATTR InstName Vi1
SYMBOL res 720 -352 M0
WINDOW 3 36 76 Left 1
SYMATTR Value 20k
SYMATTR InstName RD2
SYMBOL g 256 -240 M180
WINDOW 3 24 96 Invisible 2
SYMATTR InstName gm*vg1sa
SYMBOL g 864 -240 R180
WINDOW 3 24 96 Invisible 2
SYMATTR InstName gm*vg2sa
SYMBOL res 624 -160 R0
WINDOW 3 36 76 Invisible 2
SYMATTR InstName r0
SYMBOL g 480 -48 M180
WINDOW 3 24 96 Invisible 2
SYMATTR InstName gm3*vd4
SYMBOL g 224 -48 R180
WINDOW 3 24 96 Invisible 2
SYMATTR InstName gm4*vd4
SYMBOL res 64 -160 M0
SYMATTR InstName RD4
SYMATTR Value 33k
