Version 4
SHEET 1 1120 680
WIRE 688 -352 608 -352
WIRE 848 -352 688 -352
WIRE 1056 -352 976 -352
WIRE 688 -336 688 -352
WIRE 848 -336 848 -352
WIRE 1056 -336 1056 -352
WIRE 928 -320 896 -320
WIRE 928 -304 928 -320
WIRE 976 -272 976 -352
WIRE 976 -272 896 -272
FLAG 1056 -256 0
FLAG 848 -256 0
FLAG 928 -304 0
FLAG 608 -352 D2
FLAG 688 -256 0
FLAG 976 -352 G2
SYMBOL voltage 1056 -352 R0
WINDOW 3 24 96 Invisible 2
SYMATTR InstName Vi2
SYMBOL res 704 -352 M0
WINDOW 3 36 76 Left 1
SYMATTR Value 20k
SYMATTR InstName RD2
SYMBOL g 848 -240 R180
WINDOW 3 24 96 Invisible 2
SYMATTR InstName gm*vg2s2
