Version 4
SHEET 1 1120 680
WIRE 128 -352 48 -352
WIRE 416 -352 256 -352
WIRE 496 -352 416 -352
WIRE 688 -352 608 -352
WIRE 848 -352 688 -352
WIRE 1056 -352 976 -352
WIRE 48 -336 48 -352
WIRE 256 -336 256 -352
WIRE 416 -336 416 -352
WIRE 688 -336 688 -352
WIRE 848 -336 848 -352
WIRE 1056 -336 1056 -352
WIRE 208 -320 176 -320
WIRE 928 -320 896 -320
WIRE 176 -304 176 -320
WIRE 928 -304 928 -320
WIRE 128 -272 128 -352
WIRE 208 -272 128 -272
WIRE 976 -272 976 -352
WIRE 976 -272 896 -272
FLAG 48 -256 0
FLAG 1056 -256 0
FLAG 848 -256 0
FLAG 928 -304 0
FLAG 256 -256 0
FLAG 416 -256 0
FLAG 176 -304 0
FLAG 128 -352 G1
FLAG 496 -352 D1
FLAG 608 -352 D2
FLAG 688 -256 0
FLAG 976 -352 G2
SYMBOL res 400 -352 R0
WINDOW 3 36 76 Left 1
SYMATTR Value 20k
SYMATTR InstName RD1
SYMBOL voltage 1056 -352 R0
WINDOW 3 24 96 Invisible 2
SYMATTR InstName Vi2
SYMBOL voltage 48 -352 M0
WINDOW 3 24 96 Invisible 2
SYMATTR InstName Vi1
SYMBOL res 704 -352 M0
WINDOW 3 36 76 Left 1
SYMATTR Value 20k
SYMATTR InstName RD2
SYMBOL g 256 -240 M180
WINDOW 3 24 96 Invisible 2
SYMATTR InstName gm*vg1s1
SYMBOL g 848 -240 R180
WINDOW 3 24 96 Invisible 2
SYMATTR InstName gm*vg2s2
