Version 4
SHEET 1 1120 680
WIRE 288 -624 -32 -624
WIRE 384 -624 288 -624
WIRE 48 -592 16 -592
WIRE 208 -592 176 -592
WIRE 464 -592 432 -592
WIRE 656 -592 624 -592
WIRE 16 -576 16 -592
WIRE 176 -576 176 -592
WIRE 432 -576 432 -592
WIRE 624 -576 624 -592
WIRE 48 -528 48 -592
WIRE 208 -528 208 -592
WIRE 464 -528 464 -592
WIRE 656 -528 656 -592
WIRE 288 -512 288 -624
WIRE 288 -512 256 -512
WIRE 384 -512 384 -624
WIRE 416 -512 384 -512
WIRE 288 -464 256 -464
WIRE 416 -464 384 -464
WIRE 288 -448 288 -464
WIRE 384 -448 384 -464
WIRE 48 -432 48 -448
WIRE 128 -432 48 -432
WIRE 208 -432 208 -448
WIRE 208 -432 128 -432
WIRE 464 -432 464 -448
WIRE 560 -432 464 -432
WIRE 656 -432 656 -448
WIRE 656 -432 560 -432
WIRE -32 -400 -32 -624
WIRE 128 -400 128 -432
WIRE 128 -400 -32 -400
WIRE 560 -400 560 -432
WIRE 560 -400 208 -400
WIRE 896 -400 560 -400
WIRE 128 -352 48 -352
WIRE 416 -352 256 -352
WIRE 496 -352 416 -352
WIRE 688 -352 608 -352
WIRE 848 -352 688 -352
WIRE 1056 -352 976 -352
WIRE 48 -336 48 -352
WIRE 256 -336 256 -352
WIRE 416 -336 416 -352
WIRE 688 -336 688 -352
WIRE 848 -336 848 -352
WIRE 1056 -336 1056 -352
WIRE 208 -320 208 -400
WIRE 896 -320 896 -400
WIRE 128 -272 128 -352
WIRE 208 -272 128 -272
WIRE 976 -272 976 -352
WIRE 976 -272 896 -272
FLAG 48 -256 0
FLAG 1056 -256 0
FLAG 416 -256 0
FLAG 128 -352 G1
FLAG 496 -352 D1
FLAG 608 -352 D2
FLAG 688 -256 0
FLAG 976 -352 G2
FLAG 128 -432 D4
FLAG 176 -576 0
FLAG 16 -576 0
FLAG 288 -448 0
FLAG 384 -448 0
FLAG 432 -576 0
FLAG 624 -576 0
FLAG 560 -432 SA
FLAG 288 -624 D4
FLAG 256 -256 0
FLAG 848 -256 0
SYMBOL res 400 -352 R0
WINDOW 3 36 76 Left 1
SYMATTR Value 20k
SYMATTR InstName RD1
SYMBOL voltage 1056 -352 R0
WINDOW 3 24 96 Invisible 2
SYMATTR InstName Vi2
SYMBOL voltage 48 -352 M0
WINDOW 3 24 96 Invisible 2
SYMATTR InstName Vi1
SYMBOL res 704 -352 M0
WINDOW 3 36 76 Left 1
SYMATTR Value 20k
SYMATTR InstName RD2
SYMBOL g 256 -240 M180
WINDOW 3 24 96 Invisible 2
SYMATTR InstName gm*vg1s1
SYMBOL g 848 -240 R180
WINDOW 3 24 96 Invisible 2
SYMATTR InstName gm*vg2s2
SYMBOL res 64 -544 M0
SYMATTR InstName RD4
SYMATTR Value 33k
SYMBOL g 208 -544 M0
WINDOW 3 24 96 Invisible 2
SYMATTR InstName gm*vd4ss4
SYMBOL g 464 -544 R0
WINDOW 3 24 96 Invisible 2
SYMATTR InstName gm*vd4ss3
SYMBOL res 640 -544 R0
WINDOW 3 36 76 Invisible 2
SYMATTR InstName r0
